data/linecode_library/LineCode_Impedances_km.dss
New Linecode.uglv_240al_xlpe/nyl/pvc_ug_4w_bundled nphases=4  Units=km
~ Rmatrix=[0.0193793 |0.00457618  0.0193793  |0.00457627  0.00457627  0.0193795  |0.00457627  0.00457627  0.00457639  0.0193795  ]
~ Xmatrix=[0.0691969 |0.0614964   0.0691969  |0.0594732   0.0614961   0.0691966  |0.0614961   0.0594732   0.0614961   0.0691966  ]
~ Cmatrix=[0. |0. 0. |0. 0. 0. |0. 0. 0. 0.]  ![12.0819  |-5.63977  12.0819  |0.112212  -5.63117  12.0995  |-5.63117  0.112212  -5.62224  12.0995  ]

New Linecode.uglv_185al_xlpe/nyl/pvc_ug_4w_bundled nphases=4  Units=km
~ Rmatrix=[0.0238312 |0.00457618  0.0238312  |0.0045763  0.0045763  0.0238315  |0.0045763  0.0045763  0.00457639  0.0238315 ]
~ Xmatrix=[0.0697977 |0.0619963  0.0697977   |0.0599731  0.0619963  0.0697977  |0.0619963  0.0599731  0.061996  0.0697977  ]
~ Cmatrix=[0. |0. 0. |0. 0. 0. |0. 0. 0. 0.] ! [11.8688  |-5.50628  11.8688  |0.0429688  -5.49861  11.8844  |-5.49861  0.0429688  -5.49066  11.8844  ]

New Linecode.uglv_185al_xlpe/nyl/pvc_ug_2w_bundled nphases=2  Units=km
~ Rmatrix=[0.0238315  |0.00457639  0.0238315 ]
~ Xmatrix=[0.0697977  |0.061996  0.0697977  ]
~ Cmatrix=[0.  |0.  0. ] ! original was [8.66171  |-6.94597  8.66171  ]

New Linecode.ugsc_16al_xlpe/pvc_ug_2w_bundled nphases=2  Units=km
~ Rmatrix=[0.226818  |0.00457639  0.226818 ]
~ Xmatrix=[0.0770403 |0.0678655  0.0770403]
~ Cmatrix=[0. |0. 0.] ![7.1134  |-5.71541  7.1134  ]

New Linecode.uglv_120cu_xlpe/nyl/pvc_ug_4w_bundled nphases=4  Units=km
~ Rmatrix=[0.0225588 |0.00457624  0.0225588  |0.0045763  0.0045763  0.0225589  |0.0045763  0.0045763  0.00457639  0.0225589  ]
~ Xmatrix=[0.0710477 |0.063089  0.0710477    |0.0610661  0.063089  0.0710477   |0.063089  0.0610661  0.063089  0.0710477  ]
~ Cmatrix=[0. |0. 0. |0. 0. 0. |0. 0. 0. 0.] ! [11.5506  |-5.31262  11.5506  |-0.05814  -5.30658  11.5629  |-5.30658  -0.05814  -5.30038  11.5629  ]

New Linecode.ugsc_16cu_xlpe/nyl/pvc_ug_2w_bundled nphases=2  Units=km
~ Rmatrix=[0.138471  |0.00457639  0.138471  ]
~ Xmatrix=[0.0770403 |0.0669103  0.0770403 ]
~ Cmatrix=[0. |0. 0.] ! [6.41636  |-4.99925  6.41636  ]

New Linecode.ugsc_25cu_xlpe/nyl/pvc_ug_2w_bundled nphases=2  Units=km
~ Rmatrix=[0.0890171  |0.00457639  0.0890171  ]
~ Xmatrix=[0.0757379  |0.0660898  0.0757379 ]
~ Cmatrix=[0. |0. 0.] ! [6.77453  |-5.31299  6.77453  ]

New Linecode.abc4x95_lv_oh_4w_bundled nphases=4  Units=km
~ Rmatrix=[0.0408072 |0.00453728  0.0408072  |0.00453734  0.00453734  0.0408072  |0.00453734  0.00453734  0.00453741  0.0408072 ]
~ Xmatrix=[0.0717801 |0.0648078  0.0717801  |0.0627845  0.0648075  0.0717798  |0.0648075  0.0627845  0.0648075  0.0717798 ]
~ Cmatrix=[0. |0. 0. |0. 0. 0. |0. 0. 0. 0.] ! [13.8128  |-6.9345  13.8128  |0.679407  -6.93387  13.814  |-6.93387  0.679407  -6.93323  13.814  ]

New Linecode.tw4x16_lv_oh_4w_bundled nphases=4  Units=km
~ Rmatrix=[0.220586  |0.00453734  0.220586  |0.00453737  0.00453737  0.220586  |0.00453737  0.00453737  0.00453741  0.220586  ]
~ Xmatrix=[0.0775743 |0.0693636  0.0775743  |0.0673407  0.0693636  0.0775743   |0.0693636  0.0673407  0.0693636  0.0775743  ]
~ Cmatrix=[0. |0. 0. |0. 0. 0. |0. 0. 0. 0.] ! [11.0124  |-5.09427  11.0124  |-0.267766  -5.09405  11.0128  |-5.09405  -0.267766  -5.09383  11.0128  ]

New Linecode.abc2x16_lv_oh_2w_bundled nphases=2  Units=km
~ Rmatrix=[0.220586  |0.00453741  0.220586 ]
~ Xmatrix=[0.0769593 |0.0689692  0.0769593 ]
~ Cmatrix=[0. |0. 0.] ! [8.11423  |-7.04148  8.11423  ]

New Linecode.tw2x16_lv_oh_2w_bundled nphases=2  Units=km
~ Rmatrix=[0.220586  |0.00453741  0.220586  ]
~ Xmatrix=[0.0775743 |0.0693636  0.0775743  ]
~ Cmatrix=[0. |0. 0.] ! [7.8608  |-6.79966  7.8608  ]